/*--------------------------------*- C++ -*----------------------------------*\
| =========                 |                                                 |
| \\      /  F ield         | OpenFOAM: The Open Source CFD Toolbox           |
|  \\    /   O peration     | Version:  2406                                  |
|   \\  /    A nd           | Website:  www.openfoam.com                      |
|    \\/     M anipulation  |                                                 |
\*---------------------------------------------------------------------------*/
FoamFile
{
    version     2.0;
    format      ascii;
    arch        "LSB;label=32;scalar=64";
    class       polyBoundaryMesh;
    location    "constant/polyMesh";
    object      boundary;
}
// * * * * * * * * * * * * * * * * * * * * * * * * * * * * * * * * * * * * * //

5
(
    Side
    {
        type            empty;
        physicalType    patch;
        nFaces          316128;
        startFace       314960;
    }
    Inlet
    {
        type            patch;
        physicalType    patch;
        nFaces          870;
        startFace       631088;
    }
    Wall
    {
        type            wall;
        physicalType    patch;
        nFaces          597;
        startFace       631958;
    }
    Outlet
    {
        type            patch;
        physicalType    patch;
        nFaces          273;
        startFace       632555;
    }
    Cylinder
    {
        type            wall;
        physicalType    patch;
        nFaces          596;
        startFace       632828;
    }
)

// ************************************************************************* //
