/*--------------------------------*- C++ -*----------------------------------*\
| =========                 |                                                 |
| \\      /  F ield         | OpenFOAM: The Open Source CFD Toolbox           |
|  \\    /   O peration     | Version:  2406                                  |
|   \\  /    A nd           | Website:  www.openfoam.com                      |
|    \\/     M anipulation  |                                                 |
\*---------------------------------------------------------------------------*/
FoamFile
{
    version     2.0;
    format      ascii;
    arch        "LSB;label=32;scalar=64";
    class       polyBoundaryMesh;
    location    "constant/polyMesh";
    object      boundary;
}
// * * * * * * * * * * * * * * * * * * * * * * * * * * * * * * * * * * * * * //

6
(
    Side
    {
        type            empty;
        // physicalType    patch;
        nFaces          265478;
        startFace       264541;
    }
    Inlet
    {
        type            patch;
        // physicalType    patch;
        nFaces          263;
        startFace       530019;
    }
    Wall
    {
        type            wall;
        // physicalType    patch;
        nFaces          480;
        startFace       530282;
    }
    Outlet
    {
        type            patch;
        // physicalType    patch;
        nFaces          263;
        startFace       530762;
    }
    Top
    {
        type            wall;
        // physicalType    patch;
        nFaces          480;
        startFace       531025;
    }
    Cylinder
    {
        type            wall;
        // physicalType    patch;
        nFaces          388;
        startFace       531505;
    }
)

// ************************************************************************* //
