/*--------------------------------*- C++ -*----------------------------------*\
| =========                 |                                                 |
| \\      /  F ield         | OpenFOAM: The Open Source CFD Toolbox           |
|  \\    /   O peration     | Version:  2406                                  |
|   \\  /    A nd           | Website:  www.openfoam.com                      |
|    \\/     M anipulation  |                                                 |
\*---------------------------------------------------------------------------*/
FoamFile
{
    version     2.0;
    format      ascii;
    arch        "LSB;label=32;scalar=64";
    class       polyBoundaryMesh;
    location    "constant/polyMesh";
    object      boundary;
}
// * * * * * * * * * * * * * * * * * * * * * * * * * * * * * * * * * * * * * //

5
(
    Side
    {
        type            empty;
        // physicalType    patch;
        nFaces          210904;
        startFace       210064;
    }
    Inlet
    {
        type            patch;
        // physicalType    patch;
        nFaces          642;
        startFace       420968;
    }
    Wall
    {
        type            wall;
        // physicalType    patch;
        nFaces          401;
        startFace       421610;
    }
    Outlet
    {
        type            patch;
        // physicalType    patch;
        nFaces          241;
        startFace       422011;
    }
    Cylinder
    {
        type            wall;
        // physicalType    patch;
        nFaces          396;
        startFace       422252;
    }
)

// ************************************************************************* //
