/*--------------------------------*- C++ -*----------------------------------*\
| =========                 |                                                 |
| \\      /  F ield         | OpenFOAM: The Open Source CFD Toolbox           |
|  \\    /   O peration     | Version:  2406                                  |
|   \\  /    A nd           | Website:  www.openfoam.com                      |
|    \\/     M anipulation  |                                                 |
\*---------------------------------------------------------------------------*/
FoamFile
{
    version     2.0;
    format      ascii;
    arch        "LSB;label=32;scalar=64";
    class       polyBoundaryMesh;
    location    "constant/polyMesh";
    object      boundary;
}
// * * * * * * * * * * * * * * * * * * * * * * * * * * * * * * * * * * * * * //

5
(
    Side
    {
        type            empty;
        nFaces          145944;
        startFace       145302;
    }
    Inlet
    {
        type            patch;
        nFaces          494;
        startFace       291246;
    }
    Wall
    {
        type            wall;
        nFaces          242;
        startFace       291740;
    }
    Outlet
    {
        type            patch;
        nFaces          252;
        startFace       291982;
    }
    Cylinder
    {
        type            wall;
        nFaces          296;
        startFace       292234;
    }
)

// ************************************************************************* //
