/*--------------------------------*- C++ -*----------------------------------*\
| =========                 |                                                 |
| \\      /  F ield         | OpenFOAM: The Open Source CFD Toolbox           |
|  \\    /   O peration     | Version:  2406                                  |
|   \\  /    A nd           | Website:  www.openfoam.com                      |
|    \\/     M anipulation  |                                                 |
\*---------------------------------------------------------------------------*/
FoamFile
{
    version     2.0;
    format      ascii;
    arch        "LSB;label=32;scalar=64";
    class       polyBoundaryMesh;
    location    "constant/polyMesh";
    object      boundary;
}
// * * * * * * * * * * * * * * * * * * * * * * * * * * * * * * * * * * * * * //

6
(
    Side
    {
        type            patch;
        physicalType    patch;
        nFaces          216712;
        startFace       215932;
    }
    Inlet
    {
        type            patch;
        physicalType    patch;
        nFaces          284;
        startFace       432644;
    }
    Wall
    {
        type            patch;
        physicalType    patch;
        nFaces          324;
        startFace       432928;
    }
    Outlet
    {
        type            patch;
        physicalType    patch;
        nFaces          284;
        startFace       433252;
    }
    Top
    {
        type            patch;
        physicalType    patch;
        nFaces          324;
        startFace       433536;
    }
    Cylinder
    {
        type            patch;
        physicalType    patch;
        nFaces          344;
        startFace       433860;
    }
)

// ************************************************************************* //
