/*--------------------------------*- C++ -*----------------------------------*\
| =========                 |                                                 |
| \\      /  F ield         | OpenFOAM: The Open Source CFD Toolbox           |
|  \\    /   O peration     | Version:  2406                                  |
|   \\  /    A nd           | Website:  www.openfoam.com                      |
|    \\/     M anipulation  |                                                 |
\*---------------------------------------------------------------------------*/
FoamFile
{
    version     2.0;
    format      ascii;
    arch        "LSB;label=32;scalar=64";
    class       polyBoundaryMesh;
    location    "constant/polyMesh";
    object      boundary;
}
// * * * * * * * * * * * * * * * * * * * * * * * * * * * * * * * * * * * * * //

5
(
    Side
    {
        type            empty;
        nFaces          247744;
        startFace       246932;
    }
    Inlet
    {
        type            patch;
        nFaces          714;
        startFace       494676;
    }
    Outlet
    {
        type            patch;
        nFaces          287;
        startFace       495390;
    }
    Wall
    {
        type            wall;
        nFaces          427;
        startFace       495677;
    }
    Cylinder
    {
        type            wall;
        nFaces          196;
        startFace       496104;
    }
)

// ************************************************************************* //
