/*--------------------------------*- C++ -*----------------------------------*\
| =========                 |                                                 |
| \\      /  F ield         | OpenFOAM: The Open Source CFD Toolbox           |
|  \\    /   O peration     | Version:  2406                                  |
|   \\  /    A nd           | Website:  www.openfoam.com                      |
|    \\/     M anipulation  |                                                 |
\*---------------------------------------------------------------------------*/
FoamFile
{
    version     2.0;
    format      ascii;
    arch        "LSB;label=32;scalar=64";
    class       polyBoundaryMesh;
    location    "constant/polyMesh";
    object      boundary;
}
// * * * * * * * * * * * * * * * * * * * * * * * * * * * * * * * * * * * * * //

5
(
    Side
    {
        type            empty;
        nFaces          124688;
        startFace       123996;
    }
    Inlet
    {
        type            patch;
        nFaces          534;
        startFace       248684;
    }
    Wall
    {
        type            wall;
        nFaces          373;
        startFace       249218;
    }
    Outlet
    {
        type            patch;
        nFaces          161;
        startFace       249591;
    }
    Cylinder
    {
        type            wall;
        nFaces          316;
        startFace       249752;
    }
)

// ************************************************************************* //
