/*--------------------------------*- C++ -*----------------------------------*\
| =========                 |                                                 |
| \\      /  F ield         | OpenFOAM: The Open Source CFD Toolbox           |
|  \\    /   O peration     | Version:  2406                                  |
|   \\  /    A nd           | Website:  www.openfoam.com                      |
|    \\/     M anipulation  |                                                 |
\*---------------------------------------------------------------------------*/
FoamFile
{
    version     2.0;
    format      ascii;
    arch        "LSB;label=32;scalar=64";
    class       polyBoundaryMesh;
    location    "constant/polyMesh";
    object      boundary;
}
// * * * * * * * * * * * * * * * * * * * * * * * * * * * * * * * * * * * * * //

5
(
    Side
    {
        type            empty;
        nFaces          192944;
        startFace       192068;
    }
    Inlet
    {
        type            patch;
        nFaces          718;
        startFace       385012;
    }
    Wall
    {
        type            wall;
        nFaces          533;
        startFace       385730;
    }
    Outlet
    {
        type            patch;
        nFaces          185;
        startFace       386263;
    }
    Cylinder
    {
        type            wall;
        nFaces          316;
        startFace       386448;
    }
)

// ************************************************************************* //
