/*--------------------------------*- C++ -*----------------------------------*\
| =========                 |                                                 |
| \\      /  F ield         | OpenFOAM: The Open Source CFD Toolbox           |
|  \\    /   O peration     | Version:  2406                                  |
|   \\  /    A nd           | Website:  www.openfoam.com                      |
|    \\/     M anipulation  |                                                 |
\*---------------------------------------------------------------------------*/
FoamFile
{
    version     2.0;
    format      ascii;
    arch        "LSB;label=32;scalar=64";
    class       polyBoundaryMesh;
    location    "constant/polyMesh";
    object      boundary;
}
// * * * * * * * * * * * * * * * * * * * * * * * * * * * * * * * * * * * * * //

5
(
    Side
    {
        type            empty;
        // physicalType    patch;
        nFaces          168696;
        startFace       167968;
    }
    Inlet
    {
        type            patch;
        // physicalType    patch;
        nFaces          586;
        startFace       336664;
    }
    Wall
    {
        type            wall;
        // physicalType    patch;
        nFaces          373;
        startFace       337250;
    }
    Outlet
    {
        type            patch;
        // physicalType    patch;
        nFaces          213;
        startFace       337623;
    }
    Cylinder
    {
        type            wall;
        // physicalType    patch;
        nFaces          284;
        startFace       337836;
    }
)

// ************************************************************************* //
