/*--------------------------------*- C++ -*----------------------------------*\
| =========                 |                                                 |
| \\      /  F ield         | OpenFOAM: The Open Source CFD Toolbox           |
|  \\    /   O peration     | Version:  2406                                  |
|   \\  /    A nd           | Website:  www.openfoam.com                      |
|    \\/     M anipulation  |                                                 |
\*---------------------------------------------------------------------------*/
FoamFile
{
    version     2.0;
    format      ascii;
    arch        "LSB;label=32;scalar=64";
    class       polyBoundaryMesh;
    location    "constant/polyMesh";
    object      boundary;
}
// * * * * * * * * * * * * * * * * * * * * * * * * * * * * * * * * * * * * * //

5
(
    Side
    {
        type            empty;
        nFaces          41160;
        startFace       40800;
    }
    Inlet
    {
        type            patch;
        nFaces          290;
        startFace       81960;
    }
    Wall
    {
        type            wall;
        nFaces          185;
        startFace       82250;
    }
    Outlet
    {
        type            patch;
        nFaces          105;
        startFace       82435;
    }
    Cylinder
    {
        type            wall;
        nFaces          140;
        startFace       82540;
    }
)

// ************************************************************************* //
