/*--------------------------------*- C++ -*----------------------------------*\
| =========                 |                                                 |
| \\      /  F ield         | OpenFOAM: The Open Source CFD Toolbox           |
|  \\    /   O peration     | Version:  2406                                  |
|   \\  /    A nd           | Website:  www.openfoam.com                      |
|    \\/     M anipulation  |                                                 |
\*---------------------------------------------------------------------------*/
FoamFile
{
    version     2.0;
    format      ascii;
    arch        "LSB;label=32;scalar=64";
    class       polyBoundaryMesh;
    location    "constant/polyMesh";
    object      boundary;
}
// * * * * * * * * * * * * * * * * * * * * * * * * * * * * * * * * * * * * * //

5
(
    Side
    {
        type            empty;
        nFaces          40458;
        startFace       40095;
    }
    Inlet
    {
        type            patch;
        nFaces          250;
        startFace       80553;
    }
    Outlet
    {
        type            patch;
        nFaces          101;
        startFace       80803;
    }
    Cylinder
    {
        type            wall;
        nFaces          214;
        startFace       80904;
    }
    Wall
    {
        type            wall;
        nFaces          161;
        startFace       81118;
    }
)

// ************************************************************************* //
