/*--------------------------------*- C++ -*----------------------------------*\
| =========                 |                                                 |
| \\      /  F ield         | OpenFOAM: The Open Source CFD Toolbox           |
|  \\    /   O peration     | Version:  2406                                  |
|   \\  /    A nd           | Website:  www.openfoam.com                      |
|    \\/     M anipulation  |                                                 |
\*---------------------------------------------------------------------------*/
FoamFile
{
    version     2.0;
    format      ascii;
    arch        "LSB;label=32;scalar=64";
    class       polyBoundaryMesh;
    location    "constant/polyMesh";
    object      boundary;
}
// * * * * * * * * * * * * * * * * * * * * * * * * * * * * * * * * * * * * * //

5
(
    Side
    {
        type            empty;
        nFaces          60794;
        startFace       60371;
    }
    Inlet
    {
        type            patch;
        nFaces          294;
        startFace       121165;
    }
    Outlet
    {
        type            patch;
        nFaces          129;
        startFace       121459;
    }
    Cylinder
    {
        type            wall;
        nFaces          234;
        startFace       121588;
    }
    Wall
    {
        type            wall;
        nFaces          189;
        startFace       121822;
    }
)

// ************************************************************************* //
