/*--------------------------------*- C++ -*----------------------------------*\
| =========                 |                                                 |
| \\      /  F ield         | OpenFOAM: The Open Source CFD Toolbox           |
|  \\    /   O peration     | Version:  2406                                  |
|   \\  /    A nd           | Website:  www.openfoam.com                      |
|    \\/     M anipulation  |                                                 |
\*---------------------------------------------------------------------------*/
FoamFile
{
    version     2.0;
    format      ascii;
    arch        "LSB;label=32;scalar=64";
    class       polyBoundaryMesh;
    location    "constant/polyMesh";
    object      boundary;
}
// * * * * * * * * * * * * * * * * * * * * * * * * * * * * * * * * * * * * * //

6
(
    Side
    {
        type            empty;
        nFaces          150984;
        startFace       150332;
    }
    Inlet
    {
        type            patch;
        nFaces          252;
        startFace       301316;
    }
    Wall
    {
        type            wall;
        nFaces          252;
        startFace       301568;
    }
    Outlet
    {
        type            patch;
        nFaces          252;
        startFace       301820;
    }
    Top
    {
        type            wall;
        nFaces          252;
        startFace       302072;
    }
    Cylinder
    {
        type            wall;
        nFaces          296;
        startFace       302324;
    }
)

// ************************************************************************* //
