/*--------------------------------*- C++ -*----------------------------------*\
| =========                 |                                                 |
| \\      /  F ield         | OpenFOAM: The Open Source CFD Toolbox           |
|  \\    /   O peration     | Version:  2406                                  |
|   \\  /    A nd           | Website:  www.openfoam.com                      |
|    \\/     M anipulation  |                                                 |
\*---------------------------------------------------------------------------*/
FoamFile
{
    version     2.0;
    format      ascii;
    arch        "LSB;label=32;scalar=64";
    class       polyBoundaryMesh;
    location    "constant/polyMesh";
    object      boundary;
}
// * * * * * * * * * * * * * * * * * * * * * * * * * * * * * * * * * * * * * //

6
(
    Side
    {
        type            empty;
        nFaces          193992;
        startFace       193252;
    }
    Inlet
    {
        type            patch;
        nFaces          284;
        startFace       387244;
    }
    Wall
    {
        type            wall;
        nFaces          284;
        startFace       387528;
    }
    Outlet
    {
        type            patch;
        nFaces          284;
        startFace       387812;
    }
    Top
    {
        type            wall;
        nFaces          284;
        startFace       388096;
    }
    Cylinder
    {
        type            wall;
        nFaces          344;
        startFace       388380;
    }
)

// ************************************************************************* //
