/*--------------------------------*- C++ -*----------------------------------*\
| =========                 |                                                 |
| \\      /  F ield         | OpenFOAM: The Open Source CFD Toolbox           |
|  \\    /   O peration     | Version:  v2006                                 |
|   \\  /    A nd           | Website:  www.openfoam.com                      |
|    \\/     M anipulation  |                                                 |
\*---------------------------------------------------------------------------*/
FoamFile
{
    version     2.0;
    format      ascii;
    class       dictionary;
    location    "system";
    object      fvSchemes;
}
// * * * * * * * * * * * * * * * * * * * * * * * * * * * * * * * * * * * * * //

fluxScheme      Kurganov;

ddtSchemes
{
    default         backward;  // second-order
}

gradSchemes
{
    // default      leastSquares;
    default         Gauss linear; // second order
}

divSchemes
{
    default         none;
    div(tauMC)      Gauss linear;  //second order
    // div(phi,U)      Gauss vanLeerV;  //second order
    div(phi,U)      Gauss limitedLinearV 0.3;

    div(phi,k)     Gauss limitedLinear 1;  //first-second order
    div(phi,omega)     Gauss limitedLinear 1;  //first-second order
 
  div(phiv,p)      Gauss upwind; 
  div(phid,p)      Gauss vanLeer; //second order

  div(phi,K)      Gauss vanLeer;
  div(phi,e)      Gauss vanLeer;
  div(phi,nuTilda) Gauss vanLeer;
  
  div(((rho*nuEff)*dev2(T(grad(U))))) Gauss linear;
  
  div(((rho*(thermo:mu|rho))*dev2(T(grad(U))))) Gauss linear;
  div((rho*R)) Gauss linear;
  div(phi,epsilon) Gauss linear;
  div(phi,R) Gauss linear;
}

laplacianSchemes
{
    default         Gauss linear corrected;
}

interpolationSchemes
{
    default         midPoint;
    reconstruct(rho) vanLeer;
    reconstruct(U)  vanLeerV;
    reconstruct(T)  vanLeer;
}

snGradSchemes
{
    default         corrected;
}

wallDist
{
    method          meshWave;
}

// ************************************************************************* //
