/*--------------------------------*- C++ -*----------------------------------*\
| =========                 |                                                 |
| \\      /  F ield         | OpenFOAM: The Open Source CFD Toolbox           |
|  \\    /   O peration     | Version:  v2006                                 |
|   \\  /    A nd           | Website:  www.openfoam.com                      |
|    \\/     M anipulation  |                                                 |
\*---------------------------------------------------------------------------*/
FoamFile
{
    version     2.0;
    format      ascii;
    class       dictionary;
    location    "system";
    object      fvSchemes;
}
// * * * * * * * * * * * * * * * * * * * * * * * * * * * * * * * * * * * * * //

ddtSchemes
{
    default     backward; 
}

gradSchemes
{
    default     leastSquares; //Gauss linear;
}

divSchemes
{
    default         none;
    div(phi,U)      Gauss linearUpwind grad(u);
    div(phi,k)      Gauss limitedLinear 1;
    div(phi,omega) Gauss  limitedLinear 1 ;
    div(phi,R)      Gauss limitedLinear 1 ;
    div(R)          Gauss midPoint;
    div(phi,nuTilda) Gauss limitedLinear 1;//vanLeer ;
    div((nuEff*dev2(T(grad(U))))) Gauss midPoint;
}

laplacianSchemes
{
    default         Gauss linear corrected;
}

interpolationSchemes
{
    default         linear ;
}

snGradSchemes
{
    default         corrected;
}

fluxRequired
{
    default         no;
    p               ;
}

wallDist
{   
    method          meshWave;
}   
    

// ************************************************************************* //
