/*--------------------------------*- C++ -*----------------------------------*\
| =========                 |                                                 |
| \\      /  F ield         | OpenFOAM: The Open Source CFD Toolbox           |
|  \\    /   O peration     | Version:  v2006                                 |
|   \\  /    A nd           | Website:  www.openfoam.com                      |
|    \\/     M anipulation  |                                                 |
\*---------------------------------------------------------------------------*/
FoamFile
{
    version     2.0;
    format      ascii;
    class       dictionary;
    location    "system";
    object      fvSchemes;
}
// * * * * * * * * * * * * * * * * * * * * * * * * * * * * * * * * * * * * * //

ddtSchemes
{
    default         steadyState;  // second-order
}

gradSchemes
{
    // default      leastSquares;
    default         Gauss linear; // second order
}

divSchemes
{
    default         none;
    
    div(phi,U)      Gauss upwind;

    div(phi,k)     Gauss upwind; 
    div(phi,omega)     Gauss upwind;
 
  div(phiv,p)      bounded Gauss upwind; 
  div(phid,p)      bounded Gauss upwind;

  div(phi,K)      bounded Gauss upwind;
  div(phi,e)      bounded Gauss upwind;
  div(phi,Ekp)    bounded Gauss upwind;
  div(phi,nuTilda) bounded Gauss upwind;
  
  div(((rho*nuEff)*dev2(T(grad(U))))) Gauss linear;
}

laplacianSchemes
{
    default         Gauss linear corrected;
}

interpolationSchemes
{
    default         midPoint;
}

snGradSchemes
{
    default         corrected;
}

wallDist
{
    method          meshWave;
}