/*--------------------------------*- C++ -*----------------------------------*\
| =========                 |                                                 |
| \\      /  F ield         | OpenFOAM: The Open Source CFD Toolbox           |
|  \\    /   O peration     | Version:  v2406                                 |
|   \\  /    A nd           | Website:  www.openfoam.com                      |
|    \\/     M anipulation  |                                                 |
\*---------------------------------------------------------------------------*/
FoamFile
{
    version     2.0;
    format      ascii;
    class       dictionary;
    object      fvSolution;
}
// * * * * * * * * * * * * * * * * * * * * * * * * * * * * * * * * * * * * * //

solvers
{
    
//     p
// {
// 	solver PCG;
// 	preconditioner DIC;
// 	tolerance 1e-6;
// 	relTol 0.0;
// }

// "(p|e)"
// p

p
    {
        solver          GAMG;
        smoother        GaussSeidel;
        tolerance       1e-6;
        relTol          0.0;
    }
pFinal {
	relTol 0.0;
}

// p
// {
//    solver GAMG;
//    tolerance 1e-6;
//    relTol 0.01;
//    smoother GaussSeidel;
//    nPreSweeps 0;
//    nPostSweeps 2;
//    cacheAgglomeration on;
//    agglomerator faceAreaPair;
//    nCellsCoarsestLevel 1000;
//    mergeLevels 1; 
// }

    "(k|omega|e)"
    {
        solver          PBiCGStab;
        preconditioner  DILU;
        tolerance       1e-8;
        relTol          0.01;
    }
    U
    {
        solver          PBiCGStab;
        preconditioner  DILU;
        tolerance       1e-8;
        relTol          0.0;
    }
    // p
    // {
    //     solver PCG;
    //     preconditioner DIC;
    //     tolerance 1e-6;
    //     relTol 0.01;
    // }

}

SIMPLE
{
    residualControl
    {
        p               1e-5;
        U               1e-5;
        "(k|omega|e)"   1e-5;
    }

    nNonOrthogonalCorrectors 0;
    pMinFactor      0.1;
    pMaxFactor      2;
}


relaxationFactors
{
    fields
    {
    p               0.5;
    rho 0.01;
    }
    equations
    {
        p 1.3;
        U 0.3;
        "(k|omega)"   0.3;
        "(k|omega)Final" 1.0;
        e 0.7;
    }
}
