/*--------------------------------*- C++ -*----------------------------------*\
| =========                 |                                                 |
| \\      /  F ield         | OpenFOAM: The Open Source CFD Toolbox           |
|  \\    /   O peration     | Version:  v2006                                 |
|   \\  /    A nd           | Website:  www.openfoam.com                      |
|    \\/     M anipulation  |                                                 |
\*---------------------------------------------------------------------------*/
FoamFile
{
    version     2.0;
    format      ascii;
    class       dictionary;
    location    "system";
    object      fvSolution;
}
// * * * * * * * * * * * * * * * * * * * * * * * * * * * * * * * * * * * * * //

solvers
{
    p
    {
        solver           GAMG;
        smoother         DICGaussSeidel;
        tolerance        1e-6;
        relTol           0.01;
    }

    pFinal
    {
        $p;
        relTol          0;
    }

 "(U|k|epsilon|R|nuTilda)"
    {
        solver          smoothSolver;
        smoother        symGaussSeidel;
        tolerance       1e-05;
        relTol          0.1;
    }

    UFinal
    {
        $U;
        relTol          0;
    }

    omega
    {
        solver          PBiCGStab;
        preconditioner  DILU;
        tolerance       1e-10;
        relTol          0.1;
    }
    omegaFinal
    {
        $omega;
        relTol          0;
    }
    kFinal
    {
        $k;
        relTol          0;
    }



}

relaxationFactors
{
    fields
    {
        p               0.3;
    }
    equations
    {
        "(U|k|omega)"   0.7;
        "(U|k|omega)Final" 1.0;
    }
}
PIMPLE
{
    nNonOrthogonalCorrectors 0;
    nCorrectors         2;
    pRefCell                 0;
    pRefValue                0;
}


// ************************************************************************* //
