/*--------------------------------*- C++ -*----------------------------------*\
| =========                 |                                                 |
| \\      /  F ield         | OpenFOAM: The Open Source CFD Toolbox           |
|  \\    /   O peration     | Version:  v2006                                 |
|   \\  /    A nd           | Website:  www.openfoam.com                      |
|    \\/     M anipulation  |                                                 |
\*---------------------------------------------------------------------------*/
FoamFile
{
    version     2.0;
    format      ascii;
    class       volScalarField;
    location    "0";
    object      nut;
}
// * * * * * * * * * * * * * * * * * * * * * * * * * * * * * * * * * * * * * //

dimensions      [0 2 -1 0 0 0 0];

internalField   uniform 1.5e-5;

boundaryField
{
    Inlet
    {
      type           inletOutlet; 
      inletValue     $internalField;
    }

    Outlet
    {
      type            zeroGradient;
    }


    Side
    {
        type            empty;
    }

    Cylinder
    {
       type            nutUWallFunction;
       value           $internalField;
    }

    Wall
    {
       type            nutUWallFunction;
       value           $internalField;
    }
}


// ************************************************************************* //
